/*--------------------------------*- C++ -*----------------------------------*\
| =========                 |                                                 |
| \\      /  F ield         | OpenFOAM: The Open Source CFD Toolbox           |
|  \\    /   O peration     | Version:  2.4.0                                 |
|   \\  /    A nd           | Web:      www.OpenFOAM.org                      |
|    \\/     M anipulation  |                                                 |
\*---------------------------------------------------------------------------*/
FoamFile
{
    version     2.0;
    format      ascii;
    class       dictionary;
    location    "constant";
    object      thermophysicalProperties;
}
// * * * * * * * * * * * * * * * * * * * * * * * * * * * * * * * * * * * * * //

chemistry           on;
CanteraMechanismFile "ES80_H2-7-16.yaml";
transportModel "UnityLewis";
odeCoeffs
{
    // "relTol"   1e-6;
    // "absTol"   1e-10;
}
inertSpecie        "N2";
zeroDReactor
{
    constantProperty "pressure";
}

// ************************************************************************* //
